test/data/enwl/networks/network_20/Feeder_2/Loads.dss
New Load.LOAD1 Phases=1 Bus1=208.2 kV=0.23 kW=1 PF=0.95
New Load.LOAD2 Phases=1 Bus1=226.3 kV=0.23 kW=1 PF=0.95
New Load.LOAD3 Phases=1 Bus1=235.1 kV=0.23 kW=1 PF=0.95
New Load.LOAD4 Phases=1 Bus1=251.1 kV=0.23 kW=1 PF=0.95
New Load.LOAD5 Phases=1 Bus1=260.2 kV=0.23 kW=1 PF=0.95
New Load.LOAD6 Phases=1 Bus1=266.1 kV=0.23 kW=1 PF=0.95
New Load.LOAD7 Phases=1 Bus1=305.2 kV=0.23 kW=1 PF=0.95
New Load.LOAD8 Phases=1 Bus1=329.2 kV=0.23 kW=1 PF=0.95
New Load.LOAD9 Phases=1 Bus1=349.3 kV=0.23 kW=1 PF=0.95
New Load.LOAD10 Phases=1 Bus1=369.1 kV=0.23 kW=1 PF=0.95
New Load.LOAD11 Phases=1 Bus1=372.1 kV=0.23 kW=1 PF=0.95
New Load.LOAD12 Phases=1 Bus1=399.2 kV=0.23 kW=1 PF=0.95
New Load.LOAD13 Phases=1 Bus1=417.2 kV=0.23 kW=1 PF=0.95
New Load.LOAD14 Phases=1 Bus1=433.1 kV=0.23 kW=1 PF=0.95
New Load.LOAD15 Phases=1 Bus1=435.3 kV=0.23 kW=1 PF=0.95
New Load.LOAD16 Phases=1 Bus1=469.3 kV=0.23 kW=1 PF=0.95
New Load.LOAD17 Phases=1 Bus1=486.2 kV=0.23 kW=1 PF=0.95
New Load.LOAD18 Phases=1 Bus1=495.1 kV=0.23 kW=1 PF=0.95
New Load.LOAD19 Phases=1 Bus1=497.2 kV=0.23 kW=1 PF=0.95
New Load.LOAD20 Phases=1 Bus1=507.1 kV=0.23 kW=1 PF=0.95
New Load.LOAD21 Phases=1 Bus1=523.3 kV=0.23 kW=1 PF=0.95
New Load.LOAD22 Phases=1 Bus1=571.1 kV=0.23 kW=1 PF=0.95
New Load.LOAD23 Phases=1 Bus1=575.3 kV=0.23 kW=1 PF=0.95
New Load.LOAD24 Phases=1 Bus1=579.2 kV=0.23 kW=1 PF=0.95
New Load.LOAD25 Phases=1 Bus1=585.3 kV=0.23 kW=1 PF=0.95
New Load.LOAD26 Phases=1 Bus1=603.3 kV=0.23 kW=1 PF=0.95